<?xml version="1.0" encoding="UTF-8"?>

<!-- generated on 2023-09-26 16:48:32 by Eclipse SUMO netedit Version 1.16.0
<configuration xmlns:xsi="http://www.w3.org/2001/XMLSchema-instance" xsi:noNamespaceSchemaLocation="http://sumo.dlr.de/xsd/netconvertConfiguration.xsd">

    <input>
        <sumo-net-file value="C:\Qinzheng\Projects\AMS car-following and lane changing\Use case\final ring road\configuration\ring_road.net.xml"/>
    </input>

    <output>
        <output-file value="C:\Qinzheng\Projects\AMS car-following and lane changing\Use case\final ring road\configuration\ring_road.net.xml"/>
    </output>

    <processing>
        <geometry.min-radius.fix.railways value="false"/>
        <geometry.max-grade.fix value="false"/>
        <offset.disable-normalization value="true"/>
        <lefthand value="0"/>
    </processing>

    <junctions>
        <no-turnarounds value="true"/>
        <junctions.corner-detail value="5"/>
        <junctions.limit-turn-speed value="5.50"/>
        <rectangular-lane-cut value="0"/>
    </junctions>

    <pedestrian>
        <walkingareas value="0"/>
    </pedestrian>

</configuration>
-->

<net version="1.16" junctionCornerDetail="5" limitTurnSpeed="5.50" xmlns:xsi="http://www.w3.org/2001/XMLSchema-instance" xsi:noNamespaceSchemaLocation="http://sumo.dlr.de/xsd/net_file.xsd">

    <location netOffset="0.00,0.00" convBoundary="-1482.66,-2863.62,1482.66,0.00" origBoundary="-10000000000.00,-10000000000.00,10000000000.00,10000000000.00" projParameter="!"/>

    <edge id=":J1_0" function="internal">
        <lane id=":J1_0_0" index="0" speed="31.33" length="0.45" shape="99.55,-11.20 99.66,-11.20"/>
        <lane id=":J1_0_1" index="1" speed="31.33" length="0.45" shape="99.55,-8.00 99.89,-8.01"/>
        <lane id=":J1_0_2" index="2" speed="31.33" length="0.45" shape="99.55,-4.80 100.11,-4.82"/>
        <lane id=":J1_0_3" index="3" speed="31.33" length="0.45" shape="99.55,-1.60 100.33,-1.63"/>
    </edge>
    <edge id=":J10_0" function="internal">
        <lane id=":J10_0_0" index="0" speed="31.33" length="0.45" shape="925.09,-311.64 925.18,-311.71"/>
        <lane id=":J10_0_1" index="1" speed="31.33" length="0.45" shape="926.98,-309.05 927.24,-309.26"/>
        <lane id=":J10_0_2" index="2" speed="31.33" length="0.45" shape="928.86,-306.46 929.30,-306.80"/>
        <lane id=":J10_0_3" index="3" speed="31.33" length="0.45" shape="930.74,-303.87 931.35,-304.35"/>
    </edge>
    <edge id=":J11_0" function="internal">
        <lane id=":J11_0_0" index="0" speed="31.33" length="0.45" shape="1001.10,-375.41 1001.18,-375.49"/>
        <lane id=":J11_0_1" index="1" speed="31.33" length="0.45" shape="1003.15,-372.96 1003.40,-373.19"/>
        <lane id=":J11_0_2" index="2" speed="31.33" length="0.45" shape="1005.21,-370.51 1005.63,-370.88"/>
        <lane id=":J11_0_3" index="3" speed="31.33" length="0.45" shape="1007.27,-368.06 1007.85,-368.58"/>
    </edge>
    <edge id=":J12_0" function="internal">
        <lane id=":J12_0_0" index="0" speed="31.33" length="0.45" shape="1072.47,-444.34 1072.55,-444.42"/>
        <lane id=":J12_0_1" index="1" speed="31.33" length="0.45" shape="1074.69,-442.03 1074.92,-442.27"/>
        <lane id=":J12_0_2" index="2" speed="31.33" length="0.45" shape="1076.91,-439.73 1077.30,-440.13"/>
        <lane id=":J12_0_3" index="3" speed="31.33" length="0.45" shape="1079.14,-437.43 1079.68,-437.99"/>
    </edge>
    <edge id=":J13_0" function="internal">
        <lane id=":J13_0_0" index="0" speed="31.33" length="0.45" shape="1138.86,-518.06 1138.93,-518.15"/>
        <lane id=":J13_0_1" index="1" speed="31.33" length="0.45" shape="1141.24,-515.92 1141.45,-516.18"/>
        <lane id=":J13_0_2" index="2" speed="31.33" length="0.45" shape="1143.61,-513.78 1143.97,-514.21"/>
        <lane id=":J13_0_3" index="3" speed="31.33" length="0.45" shape="1145.99,-511.64 1146.49,-512.24"/>
    </edge>
    <edge id=":J14_0" function="internal">
        <lane id=":J14_0_0" index="0" speed="31.33" length="0.45" shape="1199.95,-596.24 1200.01,-596.33"/>
        <lane id=":J14_0_1" index="1" speed="31.33" length="0.45" shape="1202.47,-594.27 1202.67,-594.54"/>
        <lane id=":J14_0_2" index="2" speed="31.33" length="0.45" shape="1204.99,-592.30 1205.32,-592.75"/>
        <lane id=":J14_0_3" index="3" speed="31.33" length="0.45" shape="1207.51,-590.33 1207.97,-590.97"/>
    </edge>
    <edge id=":J15_0" function="internal">
        <lane id=":J15_0_0" index="0" speed="31.33" length="0.66" shape="1255.32,-678.32 1255.34,-678.36 1255.36,-678.39 1255.38,-678.42 1255.40,-678.46"/>
        <lane id=":J15_0_1" index="1" speed="31.33" length="0.66" shape="1257.97,-676.53 1258.05,-676.65 1258.10,-676.73 1258.15,-676.82 1258.22,-676.95"/>
        <lane id=":J15_0_2" index="2" speed="31.33" length="0.66" shape="1260.62,-674.74 1260.76,-674.94 1260.85,-675.08 1260.93,-675.23 1261.05,-675.44"/>
        <lane id=":J15_0_3" index="3" speed="31.33" length="0.66" shape="1263.28,-672.95 1263.47,-673.23 1263.59,-673.43 1263.71,-673.63 1263.87,-673.93"/>
    </edge>
    <edge id=":J16_0" function="internal">
        <lane id=":J16_0_0" index="0" speed="10.68" length="3.69" shape="1288.51,-748.41 1289.38,-749.07 1289.92,-749.59 1290.35,-750.21 1290.87,-751.17"/>
    </edge>
    <edge id=":J16_1" function="internal">
        <lane id=":J16_1_0" index="0" speed="31.33" length="4.31" shape="1291.50,-746.04 1293.70,-749.69"/>
        <lane id=":J16_1_1" index="1" speed="31.33" length="4.31" shape="1294.33,-744.53 1296.54,-748.21"/>
        <lane id=":J16_1_2" index="2" speed="31.33" length="4.31" shape="1297.15,-743.02 1299.38,-746.73"/>
        <lane id=":J16_1_3" index="3" speed="31.33" length="4.31" shape="1299.97,-741.52 1302.21,-745.24"/>
    </edge>
    <edge id=":J17_0" function="internal">
        <lane id=":J17_0_0" index="0" speed="31.33" length="7.63" shape="1346.99,-851.65 1347.98,-853.54 1348.62,-854.85 1349.20,-856.19 1350.01,-858.16"/>
        <lane id=":J17_0_1" index="1" speed="31.33" length="7.63" shape="1349.83,-850.17 1350.85,-852.14 1351.52,-853.51 1352.13,-854.90 1352.97,-856.95"/>
        <lane id=":J17_0_2" index="2" speed="31.33" length="7.63" shape="1352.67,-848.69 1353.73,-850.74 1354.43,-852.16 1355.06,-853.61 1355.94,-855.74"/>
        <lane id=":J17_0_3" index="3" speed="31.33" length="7.63" shape="1355.50,-847.21 1356.61,-849.33 1357.33,-850.81 1357.99,-852.31 1358.90,-854.53"/>
    </edge>
    <edge id=":J18_0" function="internal">
        <lane id=":J18_0_0" index="0" speed="31.33" length="0.47" shape="1385.72,-945.60 1385.76,-945.71"/>
        <lane id=":J18_0_1" index="1" speed="31.33" length="0.47" shape="1388.69,-944.39 1388.81,-944.72"/>
        <lane id=":J18_0_2" index="2" speed="31.33" length="0.47" shape="1391.65,-943.18 1391.85,-943.73"/>
        <lane id=":J18_0_3" index="3" speed="31.33" length="0.47" shape="1394.61,-941.97 1394.89,-942.74"/>
    </edge>
    <edge id=":J19_0" function="internal">
        <lane id=":J19_0_0" index="0" speed="31.33" length="0.45" shape="1416.38,-1039.95 1416.41,-1040.05"/>
        <lane id=":J19_0_1" index="1" speed="31.33" length="0.45" shape="1419.42,-1038.96 1419.52,-1039.28"/>
        <lane id=":J19_0_2" index="2" speed="31.33" length="0.45" shape="1422.47,-1037.97 1422.62,-1038.50"/>
        <lane id=":J19_0_3" index="3" speed="31.33" length="0.45" shape="1425.51,-1036.98 1425.73,-1037.73"/>
    </edge>
    <edge id=":J2_0" function="internal">
        <lane id=":J2_0_0" index="0" speed="31.33" length="0.45" shape="198.53,-18.12 198.64,-18.13"/>
        <lane id=":J2_0_1" index="1" speed="31.33" length="0.45" shape="198.76,-14.93 199.09,-14.96"/>
        <lane id=":J2_0_2" index="2" speed="31.33" length="0.45" shape="198.98,-11.74 199.53,-11.80"/>
        <lane id=":J2_0_3" index="3" speed="31.33" length="0.45" shape="199.20,-8.54 199.98,-8.63"/>
    </edge>
    <edge id=":J20_0" function="internal">
        <lane id=":J20_0_0" index="0" speed="31.33" length="0.45" shape="1440.38,-1136.22 1440.41,-1136.32"/>
        <lane id=":J20_0_1" index="1" speed="31.33" length="0.45" shape="1443.49,-1135.44 1443.56,-1135.77"/>
        <lane id=":J20_0_2" index="2" speed="31.33" length="0.45" shape="1446.59,-1134.67 1446.71,-1135.21"/>
        <lane id=":J20_0_3" index="3" speed="31.33" length="0.45" shape="1449.70,-1133.89 1449.86,-1134.66"/>
    </edge>
    <edge id=":J21_0" function="internal">
        <lane id=":J21_0_0" index="0" speed="31.33" length="0.45" shape="1457.61,-1233.92 1457.63,-1234.03"/>
        <lane id=":J21_0_1" index="1" speed="31.33" length="0.45" shape="1460.76,-1233.37 1460.81,-1233.70"/>
        <lane id=":J21_0_2" index="2" speed="31.33" length="0.45" shape="1463.92,-1232.81 1463.99,-1233.37"/>
        <lane id=":J21_0_3" index="3" speed="31.33" length="0.45" shape="1467.07,-1232.26 1467.18,-1233.03"/>
    </edge>
    <edge id=":J22_0" function="internal">
        <lane id=":J22_0_0" index="0" speed="31.33" length="0.45" shape="1467.98,-1332.60 1467.99,-1332.71"/>
        <lane id=":J22_0_1" index="1" speed="31.33" length="0.45" shape="1471.17,-1332.26 1471.19,-1332.60"/>
        <lane id=":J22_0_2" index="2" speed="31.33" length="0.45" shape="1474.35,-1331.93 1474.39,-1332.48"/>
        <lane id=":J22_0_3" index="3" speed="31.33" length="0.45" shape="1477.53,-1331.59 1477.59,-1332.37"/>
    </edge>
    <edge id=":J23_0" function="internal">
        <lane id=":J23_0_0" index="0" speed="31.33" length="0.45" shape="1471.45,-1431.75 1471.45,-1431.87"/>
        <lane id=":J23_0_1" index="1" speed="31.33" length="0.45" shape="1474.65,-1431.64 1474.65,-1431.98"/>
        <lane id=":J23_0_2" index="2" speed="31.33" length="0.45" shape="1477.85,-1431.53 1477.85,-1432.09"/>
        <lane id=":J23_0_3" index="3" speed="31.33" length="0.45" shape="1481.05,-1431.42 1481.05,-1432.20"/>
    </edge>
    <edge id=":J24_0" function="internal">
        <lane id=":J24_0_0" index="0" speed="31.33" length="0.45" shape="1467.99,-1530.91 1467.98,-1531.02"/>
        <lane id=":J24_0_1" index="1" speed="31.33" length="0.45" shape="1471.19,-1531.02 1471.17,-1531.36"/>
        <lane id=":J24_0_2" index="2" speed="31.33" length="0.45" shape="1474.39,-1531.14 1474.35,-1531.69"/>
        <lane id=":J24_0_3" index="3" speed="31.33" length="0.45" shape="1477.59,-1531.25 1477.53,-1532.03"/>
    </edge>
    <edge id=":J25_0" function="internal">
        <lane id=":J25_0_0" index="0" speed="31.33" length="0.45" shape="1457.63,-1629.59 1457.61,-1629.70"/>
        <lane id=":J25_0_1" index="1" speed="31.33" length="0.45" shape="1460.81,-1629.92 1460.76,-1630.25"/>
        <lane id=":J25_0_2" index="2" speed="31.33" length="0.45" shape="1463.99,-1630.25 1463.92,-1630.81"/>
        <lane id=":J25_0_3" index="3" speed="31.33" length="0.45" shape="1467.18,-1630.59 1467.07,-1631.36"/>
    </edge>
    <edge id=":J26_0" function="internal">
        <lane id=":J26_0_0" index="0" speed="31.33" length="0.45" shape="1440.41,-1727.30 1440.38,-1727.40"/>
        <lane id=":J26_0_1" index="1" speed="31.33" length="0.45" shape="1443.56,-1727.85 1443.49,-1728.18"/>
        <lane id=":J26_0_2" index="2" speed="31.33" length="0.45" shape="1446.71,-1728.41 1446.59,-1728.95"/>
        <lane id=":J26_0_3" index="3" speed="31.33" length="0.45" shape="1449.86,-1728.96 1449.70,-1729.73"/>
    </edge>
    <edge id=":J27_0" function="internal">
        <lane id=":J27_0_0" index="0" speed="31.33" length="0.45" shape="1416.41,-1823.57 1416.38,-1823.67"/>
        <lane id=":J27_0_1" index="1" speed="31.33" length="0.45" shape="1419.52,-1824.34 1419.42,-1824.66"/>
        <lane id=":J27_0_2" index="2" speed="31.33" length="0.45" shape="1422.62,-1825.12 1422.47,-1825.65"/>
        <lane id=":J27_0_3" index="3" speed="31.33" length="0.45" shape="1425.73,-1825.89 1425.51,-1826.64"/>
    </edge>
    <edge id=":J28_0" function="internal">
        <lane id=":J28_0_0" index="0" speed="31.33" length="0.45" shape="1385.76,-1917.93 1385.72,-1918.04"/>
        <lane id=":J28_0_1" index="1" speed="31.33" length="0.45" shape="1388.80,-1918.92 1388.69,-1919.24"/>
        <lane id=":J28_0_2" index="2" speed="31.33" length="0.45" shape="1391.84,-1919.91 1391.65,-1920.44"/>
        <lane id=":J28_0_3" index="3" speed="31.33" length="0.45" shape="1394.89,-1920.90 1394.62,-1921.64"/>
    </edge>
    <edge id=":J29_0" function="internal">
        <lane id=":J29_0_0" index="0" speed="31.33" length="0.45" shape="1348.59,-2009.93 1348.55,-2010.03"/>
        <lane id=":J29_0_1" index="1" speed="31.33" length="0.45" shape="1351.56,-2011.13 1351.42,-2011.43"/>
        <lane id=":J29_0_2" index="2" speed="31.33" length="0.45" shape="1354.53,-2012.33 1354.30,-2012.84"/>
        <lane id=":J29_0_3" index="3" speed="31.33" length="0.45" shape="1357.49,-2013.53 1357.18,-2014.24"/>
    </edge>
    <edge id=":J3_0" function="internal">
        <lane id=":J3_0_0" index="0" speed="31.33" length="0.45" shape="296.79,-31.93 296.90,-31.95"/>
        <lane id=":J3_0_1" index="1" speed="31.33" length="0.45" shape="297.23,-28.76 297.56,-28.82"/>
        <lane id=":J3_0_2" index="2" speed="31.33" length="0.45" shape="297.68,-25.59 298.23,-25.69"/>
        <lane id=":J3_0_3" index="3" speed="31.33" length="0.45" shape="298.12,-22.42 298.89,-22.56"/>
    </edge>
    <edge id=":J30_0" function="internal">
        <lane id=":J30_0_0" index="0" speed="31.33" length="0.45" shape="1305.10,-2099.11 1305.05,-2099.21"/>
        <lane id=":J30_0_1" index="1" speed="31.33" length="0.45" shape="1307.98,-2100.51 1307.82,-2100.81"/>
        <lane id=":J30_0_2" index="2" speed="31.33" length="0.45" shape="1310.85,-2101.91 1310.59,-2102.41"/>
        <lane id=":J30_0_3" index="3" speed="31.33" length="0.45" shape="1313.73,-2103.32 1313.36,-2104.01"/>
    </edge>
    <edge id=":J31_0" function="internal">
        <lane id=":J31_0_0" index="0" speed="31.33" length="0.45" shape="1255.49,-2185.03 1255.43,-2185.13"/>
        <lane id=":J31_0_1" index="1" speed="31.33" length="0.45" shape="1258.27,-2186.63 1258.09,-2186.92"/>
        <lane id=":J31_0_2" index="2" speed="31.33" length="0.45" shape="1261.04,-2188.23 1260.74,-2188.71"/>
        <lane id=":J31_0_3" index="3" speed="31.33" length="0.45" shape="1263.81,-2189.83 1263.39,-2190.50"/>
    </edge>
    <edge id=":J32_0" function="internal">
        <lane id=":J32_0_0" index="0" speed="31.33" length="0.41" shape="1199.99,-2267.32 1199.93,-2267.40"/>
        <lane id=":J32_0_1" index="1" speed="31.33" length="0.41" shape="1202.65,-2269.11 1202.47,-2269.36"/>
        <lane id=":J32_0_2" index="2" speed="31.33" length="0.41" shape="1205.30,-2270.90 1205.00,-2271.31"/>
        <lane id=":J32_0_3" index="3" speed="31.33" length="0.41" shape="1207.95,-2272.69 1207.53,-2273.27"/>
    </edge>
    <edge id=":J33_0" function="internal">
        <lane id=":J33_0_0" index="0" speed="31.33" length="0.53" shape="1138.94,-2346.46 1138.85,-2346.56"/>
        <lane id=":J33_0_1" index="1" speed="31.33" length="0.53" shape="1141.47,-2348.41 1141.21,-2348.72"/>
        <lane id=":J33_0_2" index="2" speed="31.33" length="0.53" shape="1144.00,-2350.37 1143.58,-2350.88"/>
        <lane id=":J33_0_3" index="3" speed="31.33" length="0.53" shape="1146.54,-2352.32 1145.94,-2353.03"/>
    </edge>
    <edge id=":J34_0" function="internal">
        <lane id=":J34_0_0" index="0" speed="31.33" length="0.40" shape="1072.57,-2419.18 1072.50,-2419.25"/>
        <lane id=":J34_0_1" index="1" speed="31.33" length="0.40" shape="1074.93,-2421.34 1074.72,-2421.56"/>
        <lane id=":J34_0_2" index="2" speed="31.33" length="0.40" shape="1077.30,-2423.50 1076.95,-2423.86"/>
        <lane id=":J34_0_3" index="3" speed="31.33" length="0.40" shape="1079.66,-2425.65 1079.17,-2426.16"/>
    </edge>
    <edge id=":J35_0" function="internal">
        <lane id=":J35_0_0" index="0" speed="31.33" length="0.45" shape="1001.18,-2488.13 1001.10,-2488.21"/>
        <lane id=":J35_0_1" index="1" speed="31.33" length="0.45" shape="1003.40,-2490.43 1003.15,-2490.66"/>
        <lane id=":J35_0_2" index="2" speed="31.33" length="0.45" shape="1005.63,-2492.74 1005.21,-2493.11"/>
        <lane id=":J35_0_3" index="3" speed="31.33" length="0.45" shape="1007.85,-2495.04 1007.27,-2495.56"/>
    </edge>
    <edge id=":J36_0" function="internal">
        <lane id=":J36_0_0" index="0" speed="31.33" length="0.45" shape="925.18,-2551.91 925.09,-2551.98"/>
        <lane id=":J36_0_1" index="1" speed="31.33" length="0.45" shape="927.24,-2554.36 926.98,-2554.57"/>
        <lane id=":J36_0_2" index="2" speed="31.33" length="0.45" shape="929.30,-2556.82 928.86,-2557.16"/>
        <lane id=":J36_0_3" index="3" speed="31.33" length="0.45" shape="931.35,-2559.27 930.74,-2559.75"/>
    </edge>
    <edge id=":J37_0" function="internal">
        <lane id=":J37_0_0" index="0" speed="31.33" length="0.45" shape="844.92,-2610.24 844.83,-2610.30"/>
        <lane id=":J37_0_1" index="1" speed="31.33" length="0.45" shape="846.80,-2612.83 846.52,-2613.01"/>
        <lane id=":J37_0_2" index="2" speed="31.33" length="0.45" shape="848.68,-2615.41 848.22,-2615.73"/>
        <lane id=":J37_0_3" index="3" speed="31.33" length="0.45" shape="850.56,-2618.00 849.91,-2618.44"/>
    </edge>
    <edge id=":J38_0" function="internal">
        <lane id=":J38_0_0" index="0" speed="31.33" length="0.45" shape="760.78,-2662.82 760.69,-2662.87"/>
        <lane id=":J38_0_1" index="1" speed="31.33" length="0.45" shape="762.48,-2665.53 762.19,-2665.70"/>
        <lane id=":J38_0_2" index="2" speed="31.33" length="0.45" shape="764.18,-2668.24 763.69,-2668.52"/>
        <lane id=":J38_0_3" index="3" speed="31.33" length="0.45" shape="765.87,-2670.96 765.19,-2671.35"/>
    </edge>
    <edge id=":J39_0" function="internal">
        <lane id=":J39_0_0" index="0" speed="31.33" length="0.45" shape="673.19,-2709.40 673.09,-2709.45"/>
        <lane id=":J39_0_1" index="1" speed="31.33" length="0.45" shape="674.69,-2712.23 674.39,-2712.37"/>
        <lane id=":J39_0_2" index="2" speed="31.33" length="0.45" shape="676.19,-2715.05 675.69,-2715.30"/>
        <lane id=":J39_0_3" index="3" speed="31.33" length="0.45" shape="677.69,-2717.88 676.99,-2718.22"/>
    </edge>
    <edge id=":J4_0" function="internal">
        <lane id=":J4_0_0" index="0" speed="31.33" length="0.45" shape="393.83,-52.55 393.94,-52.58"/>
        <lane id=":J4_0_1" index="1" speed="31.33" length="0.45" shape="394.50,-49.42 394.82,-49.50"/>
        <lane id=":J4_0_2" index="2" speed="31.33" length="0.45" shape="395.17,-46.29 395.71,-46.43"/>
        <lane id=":J4_0_3" index="3" speed="31.33" length="0.45" shape="395.83,-43.16 396.59,-43.35"/>
    </edge>
    <edge id=":J40_0" function="internal">
        <lane id=":J40_0_0" index="0" speed="31.33" length="7.56" shape="585.93,-2748.25 583.81,-2748.65 582.22,-2748.13 580.61,-2747.53 578.41,-2747.72"/>
        <lane id=":J40_0_1" index="1" speed="31.33" length="7.56" shape="585.93,-2748.25 584.03,-2749.09 582.71,-2749.64 581.37,-2750.12 579.39,-2750.76"/>
        <lane id=":J40_0_2" index="2" speed="31.33" length="7.56" shape="587.23,-2751.18 585.24,-2752.06 583.86,-2752.63 582.45,-2753.13 580.38,-2753.81"/>
        <lane id=":J40_0_3" index="3" speed="31.33" length="7.56" shape="588.53,-2754.10 586.45,-2755.02 585.00,-2755.62 583.53,-2756.14 581.36,-2756.85"/>
        <lane id=":J40_0_4" index="4" speed="31.33" length="7.56" shape="589.83,-2757.02 587.65,-2757.99 586.15,-2758.61 584.61,-2759.16 582.35,-2759.90"/>
    </edge>
    <edge id=":J41_0" function="internal">
        <lane id=":J41_0_0" index="0" speed="22.61" length="3.52" shape="444.99,-2790.85 443.99,-2791.17 443.30,-2791.34 442.59,-2791.43 441.55,-2791.50"/>
    </edge>
    <edge id=":J41_1" function="internal">
        <lane id=":J41_1_0" index="0" speed="31.33" length="3.02" shape="445.97,-2793.90 443.13,-2794.96"/>
        <lane id=":J41_1_1" index="1" speed="31.33" length="3.02" shape="446.96,-2796.94 444.12,-2798.00"/>
        <lane id=":J41_1_2" index="2" speed="31.33" length="3.02" shape="447.94,-2799.99 445.12,-2801.04"/>
        <lane id=":J41_1_3" index="3" speed="31.33" length="3.02" shape="448.93,-2803.03 446.11,-2804.09"/>
    </edge>
    <edge id=":J42_0" function="internal">
        <lane id=":J42_0_0" index="0" speed="31.33" length="0.68" shape="393.77,-2811.07 393.72,-2811.09 393.69,-2811.10 393.66,-2811.11 393.61,-2811.12"/>
        <lane id=":J42_0_1" index="1" speed="31.33" length="0.68" shape="394.76,-2814.11 394.62,-2814.16 394.52,-2814.19 394.42,-2814.21 394.27,-2814.25"/>
        <lane id=":J42_0_2" index="2" speed="31.33" length="0.68" shape="395.76,-2817.16 395.52,-2817.23 395.35,-2817.28 395.18,-2817.32 394.94,-2817.38"/>
        <lane id=":J42_0_3" index="3" speed="31.33" length="0.68" shape="396.75,-2820.20 396.41,-2820.31 396.18,-2820.37 395.95,-2820.43 395.60,-2820.51"/>
    </edge>
    <edge id=":J43_0" function="internal">
        <lane id=":J43_0_0" index="0" speed="31.33" length="0.45" shape="296.90,-2831.67 296.79,-2831.69"/>
        <lane id=":J43_0_1" index="1" speed="31.33" length="0.45" shape="297.56,-2834.80 297.23,-2834.86"/>
        <lane id=":J43_0_2" index="2" speed="31.33" length="0.45" shape="298.23,-2837.93 297.68,-2838.03"/>
        <lane id=":J43_0_3" index="3" speed="31.33" length="0.45" shape="298.89,-2841.06 298.12,-2841.20"/>
    </edge>
    <edge id=":J44_0" function="internal">
        <lane id=":J44_0_0" index="0" speed="31.33" length="0.45" shape="198.64,-2845.49 198.53,-2845.50"/>
        <lane id=":J44_0_1" index="1" speed="31.33" length="0.45" shape="199.09,-2848.66 198.76,-2848.69"/>
        <lane id=":J44_0_2" index="2" speed="31.33" length="0.45" shape="199.53,-2851.82 198.98,-2851.88"/>
        <lane id=":J44_0_3" index="3" speed="31.33" length="0.45" shape="199.98,-2854.99 199.20,-2855.08"/>
    </edge>
    <edge id=":J45_0" function="internal">
        <lane id=":J45_0_0" index="0" speed="31.33" length="0.45" shape="99.66,-2852.42 99.55,-2852.42"/>
        <lane id=":J45_0_1" index="1" speed="31.33" length="0.45" shape="99.89,-2855.61 99.55,-2855.62"/>
        <lane id=":J45_0_2" index="2" speed="31.33" length="0.45" shape="100.11,-2858.80 99.55,-2858.82"/>
        <lane id=":J45_0_3" index="3" speed="31.33" length="0.45" shape="100.33,-2861.99 99.55,-2862.02"/>
    </edge>
    <edge id=":J46_0" function="internal">
        <lane id=":J46_0_0" index="0" speed="31.33" length="0.10" shape="0.00,-2852.42 0.00,-2852.42"/>
        <lane id=":J46_0_1" index="1" speed="31.33" length="0.10" shape="0.00,-2855.62 0.00,-2855.62"/>
        <lane id=":J46_0_2" index="2" speed="31.33" length="0.10" shape="0.00,-2858.82 0.00,-2858.82"/>
        <lane id=":J46_0_3" index="3" speed="31.33" length="0.10" shape="0.00,-2862.02 0.00,-2862.02"/>
    </edge>
    <edge id=":J47_0" function="internal">
        <lane id=":J47_0_0" index="0" speed="31.33" length="0.45" shape="-99.55,-2852.42 -99.66,-2852.42"/>
        <lane id=":J47_0_1" index="1" speed="31.33" length="0.45" shape="-99.55,-2855.62 -99.89,-2855.61"/>
        <lane id=":J47_0_2" index="2" speed="31.33" length="0.45" shape="-99.55,-2858.82 -100.11,-2858.80"/>
        <lane id=":J47_0_3" index="3" speed="31.33" length="0.45" shape="-99.55,-2862.02 -100.33,-2861.99"/>
    </edge>
    <edge id=":J48_0" function="internal">
        <lane id=":J48_0_0" index="0" speed="31.33" length="0.45" shape="-198.53,-2845.50 -198.64,-2845.49"/>
        <lane id=":J48_0_1" index="1" speed="31.33" length="0.45" shape="-198.76,-2848.69 -199.09,-2848.66"/>
        <lane id=":J48_0_2" index="2" speed="31.33" length="0.45" shape="-198.98,-2851.88 -199.53,-2851.82"/>
        <lane id=":J48_0_3" index="3" speed="31.33" length="0.45" shape="-199.20,-2855.08 -199.98,-2854.99"/>
    </edge>
    <edge id=":J49_0" function="internal">
        <lane id=":J49_0_0" index="0" speed="31.33" length="0.45" shape="-296.79,-2831.69 -296.90,-2831.67"/>
        <lane id=":J49_0_1" index="1" speed="31.33" length="0.45" shape="-297.23,-2834.86 -297.56,-2834.80"/>
        <lane id=":J49_0_2" index="2" speed="31.33" length="0.45" shape="-297.68,-2838.03 -298.23,-2837.93"/>
        <lane id=":J49_0_3" index="3" speed="31.33" length="0.45" shape="-298.12,-2841.20 -298.89,-2841.06"/>
    </edge>
    <edge id=":J5_0" function="internal">
        <lane id=":J5_0_0" index="0" speed="31.33" length="0.45" shape="489.21,-79.89 489.32,-79.93"/>
        <lane id=":J5_0_1" index="1" speed="31.33" length="0.45" shape="490.10,-76.82 490.41,-76.92"/>
        <lane id=":J5_0_2" index="2" speed="31.33" length="0.45" shape="490.98,-73.74 491.51,-73.91"/>
        <lane id=":J5_0_3" index="3" speed="31.33" length="0.45" shape="491.86,-70.66 492.60,-70.91"/>
    </edge>
    <edge id=":J50_0" function="internal">
        <lane id=":J50_0_0" index="0" speed="31.33" length="0.45" shape="-393.83,-2811.07 -393.94,-2811.04"/>
        <lane id=":J50_0_1" index="1" speed="31.33" length="0.45" shape="-394.50,-2814.20 -394.82,-2814.12"/>
        <lane id=":J50_0_2" index="2" speed="31.33" length="0.45" shape="-395.17,-2817.33 -395.71,-2817.19"/>
        <lane id=":J50_0_3" index="3" speed="31.33" length="0.45" shape="-395.83,-2820.46 -396.59,-2820.27"/>
    </edge>
    <edge id=":J51_0" function="internal">
        <lane id=":J51_0_0" index="0" speed="31.33" length="0.45" shape="-489.21,-2783.73 -489.32,-2783.69"/>
        <lane id=":J51_0_1" index="1" speed="31.33" length="0.45" shape="-490.10,-2786.80 -490.41,-2786.70"/>
        <lane id=":J51_0_2" index="2" speed="31.33" length="0.45" shape="-490.98,-2789.88 -491.51,-2789.71"/>
        <lane id=":J51_0_3" index="3" speed="31.33" length="0.45" shape="-491.86,-2792.96 -492.60,-2792.71"/>
    </edge>
    <edge id=":J52_0" function="internal">
        <lane id=":J52_0_0" index="0" speed="31.33" length="0.45" shape="-582.45,-2749.80 -582.55,-2749.76"/>
        <lane id=":J52_0_1" index="1" speed="31.33" length="0.45" shape="-583.54,-2752.81 -583.85,-2752.68"/>
        <lane id=":J52_0_2" index="2" speed="31.33" length="0.45" shape="-584.64,-2755.81 -585.16,-2755.60"/>
        <lane id=":J52_0_3" index="3" speed="31.33" length="0.45" shape="-585.73,-2758.82 -586.46,-2758.53"/>
    </edge>
    <edge id=":J53_0" function="internal">
        <lane id=":J53_0_0" index="0" speed="31.33" length="0.45" shape="-673.09,-2709.45 -673.19,-2709.40"/>
        <lane id=":J53_0_1" index="1" speed="31.33" length="0.45" shape="-674.39,-2712.37 -674.69,-2712.23"/>
        <lane id=":J53_0_2" index="2" speed="31.33" length="0.45" shape="-675.69,-2715.30 -676.19,-2715.05"/>
        <lane id=":J53_0_3" index="3" speed="31.33" length="0.45" shape="-676.99,-2718.22 -677.69,-2717.88"/>
    </edge>
    <edge id=":J54_0" function="internal">
        <lane id=":J54_0_0" index="0" speed="31.33" length="0.45" shape="-760.69,-2662.87 -760.78,-2662.82"/>
        <lane id=":J54_0_1" index="1" speed="31.33" length="0.45" shape="-762.19,-2665.70 -762.48,-2665.53"/>
        <lane id=":J54_0_2" index="2" speed="31.33" length="0.45" shape="-763.69,-2668.52 -764.18,-2668.24"/>
        <lane id=":J54_0_3" index="3" speed="31.33" length="0.45" shape="-765.19,-2671.35 -765.87,-2670.96"/>
    </edge>
    <edge id=":J55_0" function="internal">
        <lane id=":J55_0_0" index="0" speed="31.33" length="0.45" shape="-844.83,-2610.30 -844.92,-2610.24"/>
        <lane id=":J55_0_1" index="1" speed="31.33" length="0.45" shape="-846.52,-2613.01 -846.80,-2612.83"/>
        <lane id=":J55_0_2" index="2" speed="31.33" length="0.45" shape="-848.22,-2615.73 -848.68,-2615.41"/>
        <lane id=":J55_0_3" index="3" speed="31.33" length="0.45" shape="-849.91,-2618.44 -850.56,-2618.00"/>
    </edge>
    <edge id=":J56_0" function="internal">
        <lane id=":J56_0_0" index="0" speed="31.33" length="0.45" shape="-925.09,-2551.98 -925.18,-2551.91"/>
        <lane id=":J56_0_1" index="1" speed="31.33" length="0.45" shape="-926.98,-2554.57 -927.24,-2554.36"/>
        <lane id=":J56_0_2" index="2" speed="31.33" length="0.45" shape="-928.86,-2557.16 -929.30,-2556.82"/>
        <lane id=":J56_0_3" index="3" speed="31.33" length="0.45" shape="-930.74,-2559.75 -931.35,-2559.27"/>
    </edge>
    <edge id=":J57_0" function="internal">
        <lane id=":J57_0_0" index="0" speed="31.33" length="0.45" shape="-1001.10,-2488.21 -1001.18,-2488.13"/>
        <lane id=":J57_0_1" index="1" speed="31.33" length="0.45" shape="-1003.15,-2490.66 -1003.40,-2490.43"/>
        <lane id=":J57_0_2" index="2" speed="31.33" length="0.45" shape="-1005.21,-2493.11 -1005.63,-2492.74"/>
        <lane id=":J57_0_3" index="3" speed="31.33" length="0.45" shape="-1007.27,-2495.56 -1007.85,-2495.04"/>
    </edge>
    <edge id=":J58_0" function="internal">
        <lane id=":J58_0_0" index="0" speed="31.33" length="0.45" shape="-1072.47,-2419.28 -1072.55,-2419.20"/>
        <lane id=":J58_0_1" index="1" speed="31.33" length="0.45" shape="-1074.69,-2421.59 -1074.92,-2421.35"/>
        <lane id=":J58_0_2" index="2" speed="31.33" length="0.45" shape="-1076.91,-2423.89 -1077.30,-2423.49"/>
        <lane id=":J58_0_3" index="3" speed="31.33" length="0.45" shape="-1079.14,-2426.19 -1079.68,-2425.63"/>
    </edge>
    <edge id=":J59_0" function="internal">
        <lane id=":J59_0_0" index="0" speed="31.33" length="0.45" shape="-1138.86,-2345.56 -1138.93,-2345.47"/>
        <lane id=":J59_0_1" index="1" speed="31.33" length="0.45" shape="-1141.24,-2347.70 -1141.45,-2347.44"/>
        <lane id=":J59_0_2" index="2" speed="31.33" length="0.45" shape="-1143.61,-2349.84 -1143.97,-2349.41"/>
        <lane id=":J59_0_3" index="3" speed="31.33" length="0.45" shape="-1145.99,-2351.98 -1146.49,-2351.38"/>
    </edge>
    <edge id=":J6_0" function="internal">
        <lane id=":J6_0_0" index="0" speed="31.33" length="0.45" shape="582.45,-113.82 582.55,-113.86"/>