<?xml version="1.0" encoding="UTF-8"?>
<routes xmlns:xsi="http://www.w3.org/2001/XMLSchema-instance" xsi:noNamespaceSchemaLocation="http://sumo.dlr.de/xsd/routes_file.xsd">

           <vType id="ACC" color="0,255,255" length="5"  maxSpeed="33.33"  carFollowModel="IDM" tau="0.6" minGap="2" accel="1.4" decel="2" lcStrategic="0.1" lcKeepRight="0"/>
            

           <vType id="Following-ACC" color="0,255,255" length="5"  maxSpeed="33.28"  carFollowModel="IDM" tau="1.54" minGap="1.32" accel="0.73" decel="1.67" lcStrategic="0.1" lcKeepRight="0" lcAssertive="5"/>
            

           <vType id="Following-ACC1" color="0,255,255" length="5"  maxSpeed="28.3"  carFollowModel="IDM" tau="1.54" minGap="1.32" accel="0.73" decel="1.67" lcStrategic="0.1" lcKeepRight="0" lcAssertive="5"/>
            

           <vType id="Following-ACC2" color="0,255,255" length="5"  maxSpeed="25.3"  carFollowModel="IDM" tau="1.54" minGap="1.32" accel="0.73" decel="1.67" lcStrategic="0.1" lcKeepRight="0" lcAssertive="5"/>
            

           <vType id="Following-ACC3" color="0,255,255" length="5"  maxSpeed="22.4"  carFollowModel="IDM" tau="1.54" minGap="1.32" accel="0.73" decel="1.67" lcStrategic="0.1" lcKeepRight="0" lcAssertive="5"/>
            

            <vType id="HV" color="0,0,255" length="5" carFollowModel="IDM" maxSpeed="33.3" tau="1.6"  minGap="2" 
            accel="0.73" decel="1.67" speedFactor="1" stepping="0.25" lcStrategic="0.1" lcCooperative="1" lcAssertive="5" 
            lcSpeedGain="1" lcSpeedGainLookahead="0" lcLookaheadLeft="1" lcKeepRight="0" speedDev="0.1" />
            

            <vType id="HV1" color="0,100,255" length="5" carFollowModel="IDM" maxSpeed="28.3" tau="1.6"  minGap="2" 
            accel="0.73" decel="1.67" speedFactor="1" stepping="0.25" lcStrategic="0.1" lcCooperative="1" lcAssertive="5" 
            lcSpeedGain="1" lcSpeedGainLookahead="0" lcLookaheadLeft="1" lcKeepRight="0" speedDev="0.1" />
            

            <vType id="HV2" color="100,0,255" length="5" carFollowModel="IDM" maxSpeed="25.3" tau="1.6"  minGap="2" 
            accel="0.73" decel="1.67" speedFactor="1" stepping="0.25" lcStrategic="0.1" lcCooperative="1" lcAssertive="5" 
            lcSpeedGain="1" lcSpeedGainLookahead="0" lcLookaheadLeft="1" lcKeepRight="0" speedDev="0.1" />
            

            <vType id="HV3" color="100,100,255" length="5" carFollowModel="IDM" maxSpeed="22.3" tau="1.6"  minGap="2" 
            accel="0.73" decel="1.67" speedFactor="1" stepping="0.25" lcStrategic="0.1" lcCooperative="1" lcAssertive="5" 
            lcSpeedGain="1" lcSpeedGainLookahead="0" lcLookaheadLeft="1" lcKeepRight="0" speedDev="0.1" />
            

            <vType id="truck" color="125,50,255" length="15" carFollowModel="IDM" maxSpeed="20" tau="1.8"  minGap="2.5" 
            accel="0.70" decel="1.47" speedFactor="1" stepping="0.25" lcStrategic="0.8" lcCooperative="1" lcAssertive="1" 
            lcSpeedGain="999" lcSpeedGainLookahead="0" lcLookaheadLeft="10" lcKeepRight="0" speedDev="0.2" />
            

        <route id="r1" edges="E0 E1 E2 E3 E4 E5 E6 E7 E8 E9 E10 E11 E12 E13 E14 E15 E16 E17 E18 E19 E20 E21 E22 E23 E24 E25 E26 E27 E28 E29 E30 E31 E32 E33 E34 E35 E36 E37 E38 E39 E40 E41 E42 E43 E44 E45 E46 E47 E48 E49 E50 E51 E52 E53 E54 E55 E56 E57 E58 E59 E60 E61 E62 E63 E64 E65 E66 E67 E68 E69 E70 E71 E72 E73 E74 E75 E76 E77 E78 E79 E80 E81 E82 E83 E84 E85 E86 E87 E88 E89 E90"/>

                    <flow id="flow1"  begin="0" end= "4200" vehsPerHour="1340.000000" type="ACC" route="r1" departLane="random" departSpeed="last" departPos="last"></flow>
                    

                       <flow id="flow2"  begin="0" end= "4200" vehsPerHour="1538.000000" type="HV" route="r1" departLane="random" departSpeed="last" departPos="last" ></flow>
                        

                       <flow id="flow3"  begin="0" end= "4200" vehsPerHour="220.000000" type="HV1" route="r1" departLane="random" departSpeed="last" departPos="last" ></flow>
                        

                       <flow id="flow4"  begin="0" end= "4200" vehsPerHour="220.000000" type="HV2" route="r1" departLane="random" departSpeed="last" departPos="last" ></flow>
                        

                       <flow id="flow5"  begin="0" end= "4200" vehsPerHour="176.000000" type="HV3" route="r1" departLane="random" departSpeed="last" departPos="last" ></flow>
                        

                       <flow id="flow6"  begin="0" end= "4200" vehsPerHour="44.000000" type="truck" route="r1" departLane="random" departSpeed="last" departPos="last" ></flow>
                        

        <route id="r2" edges="E91 E16 E17 E18 E19 E20 E21 E22 E23 E24 E25 E26 E27 E28 E29 E30 E31 E32 E33 E34 E35 E36 E37 E38 E39 E40 E41 E42 E43 E44 E45 E46 E47 E48 E49 E50 E51 E52 E53 E54 E55 E56 E57 E58 E59 E60 E61 E62 E63 E64 E65 E66 E67 E68 E69 E70 E71 E72 E73 E74 E75 E76 E77 E78 E79 E80 E81 E82 E83 E84 E85 E86 E87 E88 E89 E90"/>

                    <flow id="flow7"  begin="0" end= "4200" vehsPerHour="74.000000" type="ACC" route="r2" departLane="random" departSpeed="last" departPos="last"></flow>
                    

                       <flow id="flow8"  begin="0" end= "4200" vehsPerHour="140.000000" type="HV" route="r2" departLane="random" departSpeed="last" departPos="last" ></flow>
                        

                       <flow id="flow9"  begin="0" end= "4200" vehsPerHour="20.000000" type="HV1" route="r2" departLane="random" departSpeed="last" departPos="last" ></flow>
                        

                       <flow id="flow10"  begin="0" end= "4200" vehsPerHour="20.000000" type="HV2" route="r2" departLane="random" departSpeed="last" departPos="last" ></flow>
                        

                       <flow id="flow11"  begin="0" end= "4200" vehsPerHour="16.000000" type="HV3" route="r2" departLane="random" departSpeed="last" departPos="last" ></flow>
                        

                       <flow id="flow12"  begin="0" end= "4200" vehsPerHour="4.000000" type="truck" route="r2" departLane="random" departSpeed="last" departPos="last" ></flow>
                        

        <route id="r3" edges="E0 E1 E2 E3 E4 E5 E6 E7 E8 E9 E10 E11 E12 E13 E14 E15 E16 E17 E18 E19 E20 E21 E22 E23 E24 E25 E26 E27 E28 E29 E30 E31 E32 E33 E34 E35 E36 E37 E38 E39 E40 E92"/>

                    <flow id="flow13"  begin="0" end= "4200" vehsPerHour="44.000000" type="ACC" route="r3" departLane="random" departSpeed="last" departPos="last"></flow>
                    

                       <flow id="flow14"  begin="0" end= "4200" vehsPerHour="84.000000" type="HV" route="r3" departLane="random" departSpeed="last" departPos="last" ></flow>
                        

                       <flow id="flow15"  begin="0" end= "4200" vehsPerHour="12.000000" type="HV1" route="r3" departLane="random" departSpeed="last" departPos="last" ></flow>
                        

                       <flow id="flow16"  begin="0" end= "4200" vehsPerHour="12.000000" type="HV2" route="r3" departLane="random" departSpeed="last" departPos="last" ></flow>
                        

                       <flow id="flow17"  begin="0" end= "4200" vehsPerHour="10.000000" type="HV3" route="r3" departLane="random" departSpeed="last" departPos="last" ></flow>
                        

                       <flow id="flow18"  begin="0" end= "4200" vehsPerHour="3.000000" type="truck" route="r3" departLane="random" departSpeed="last" departPos="last" ></flow>
                        

        <route id="r4" edges="E16 E17 E18 E19 E20 E21 E22 E23 E24 E25 E26 E27 E28 E29 E30 E31 E32 E33 E34 E35 E36 E37 E38 E39 E40 E92"/>

                    <flow id="flow19"  begin="0" end= "4200" vehsPerHour="8.000000" type="ACC" route="r4" departLane="random" departSpeed="last" departPos="last"></flow>
                    

                       <flow id="flow20"  begin="0" end= "4200" vehsPerHour="14.000000" type="HV" route="r4" departLane="random" departSpeed="last" departPos="last" ></flow>
                        

                       <flow id="flow21"  begin="0" end= "4200" vehsPerHour="2.000000" type="HV1" route="r4" departLane="random" departSpeed="last" departPos="last" ></flow>
                        

                       <flow id="flow22"  begin="0" end= "4200" vehsPerHour="2.000000" type="HV2" route="r4" departLane="random" departSpeed="last" departPos="last" ></flow>
                        

                       <flow id="flow23"  begin="0" end= "4200" vehsPerHour="2.000000" type="HV3" route="r4" departLane="random" departSpeed="last" departPos="last" ></flow>
                        

                       <flow id="flow24"  begin="0" end= "4200" vehsPerHour="1.000000" type="truck" route="r4" departLane="random" departSpeed="last" departPos="last" ></flow>
                        

</routes>
            
